%chk=DME_1.chk
%nprocshared=4
%mem=16gb
# b3lyp/aug-cc-PVTZ scf(xqc) nosymm em=gd3

DME

0 1
6	12.458023	8.969580	9.855417
1	12.436426	9.619518	8.961672
1	12.437477	9.618227	10.750123
8	13.614964	8.146886	9.854157
6	14.818738	8.895430	9.853969
1	15.646690	8.176737	9.852913
1	14.893173	9.536399	8.956749
1	14.894300	9.535049	10.752060
1	8.810305	7.487147	8.958483
1	11.267905	7.403031	10.749268
1	8.811080	7.486042	10.753792
1	11.267126	7.404087	8.960820
8	10.089418	8.875468	9.856438
6	8.885692	8.126900	9.856499
1	8.057691	8.845540	9.857304
6	11.246390	8.052857	9.855437




